<?xml version="1.0" encoding="UTF-8" standalone="no"?><!DOCTYPE plans SYSTEM "http://www.matsim.org/files/dtd/plans_v4.dtd">
<plans><person id="1"><plan><act end_time="07:00:00" type="home" x="-8244645" y="5083720"/><leg mode="ambulance"/><act dur="00:10:00" type="work" x="-8240803.113191879" y="5080495.985365002"/><leg mode="ambulance"/><act dur="00:15:00" type="shop" x="-8239250" y="5086920"/><leg mode="ambulance"/><act type="home" x="-8244645" y="5083720"/></plan></person><person id="2"><plan><act end_time="07:00:00" type="home" x="-8244645" y="5083720"/><leg mode="ambulance"/><act dur="00:10:00" type="work" x="-8243962.738826859" y="5080813.113421807"/><leg mode="ambulance"/><act dur="00:15:00" type="shop" x="-8239250" y="5086920"/><leg mode="ambulance"/><act type="home" x="-8244645" y="5083720"/></plan></person><person id="3"><plan><act end_time="07:00:00" type="home" x="-8244645" y="5083720"/><leg mode="ambulance"/><act dur="00:10:00" type="work" x="-8241906.567644367" y="5082792.766831251"/><leg mode="ambulance"/><act dur="00:15:00" type="shop" x="-8239250" y="5086920"/><leg mode="ambulance"/><act type="home" x="-8244645" y="5083720"/></plan></person><person id="4"><plan><act end_time="07:00:00" type="home" x="-8244645" y="5083720"/><leg mode="ambulance"/><act dur="00:10:00" type="work" x="-8241859.256860781" y="5080406.444516441"/><leg mode="ambulance"/><act dur="00:15:00" type="shop" x="-8239250" y="5086920"/><leg mode="ambulance"/><act type="home" x="-8244645" y="5083720"/></plan></person><person id="5"><plan><act end_time="08:00:00" type="home" x="-8244645" y="5083720"/><leg mode="ambulance"/><act dur="00:10:00" type="work" x="-8251464.281012693" y="5078999.538486279"/><leg mode="ambulance"/><act dur="00:15:00" type="shop" x="-8239250" y="5086920"/><leg mode="ambulance"/><act type="home" x="-8244645" y="5083720"/></plan></person><person id="6"><plan><act end_time="08:00:00" type="home" x="-8244645" y="5083720"/><leg mode="ambulance"/><act dur="00:10:00" type="work" x="-8247255.78087156" y="5083505.668878396"/><leg mode="ambulance"/><act dur="00:15:00" type="shop" x="-8239250" y="5086920"/><leg mode="ambulance"/><act type="home" x="-8244645" y="5083720"/></plan></person><person id="7"><plan><act end_time="08:00:00" type="home" x="-8244645" y="5083720"/><leg mode="ambulance"/><act dur="00:10:00" type="work" x="-8245589.806768194" y="5080060.112865061"/><leg mode="ambulance"/><act dur="00:15:00" type="shop" x="-8239250" y="5086920"/><leg mode="ambulance"/><act type="home" x="-8244645" y="5083720"/></plan></person><person id="8"><plan><act end_time="08:00:00" type="home" x="-8244645" y="5083720"/><leg mode="ambulance"/><act dur="00:10:00" type="work" x="-8250784.330430977" y="5084390.391601995"/><leg mode="ambulance"/><act dur="00:15:00" type="shop" x="-8239250" y="5086920"/><leg mode="ambulance"/><act type="home" x="-8244645" y="5083720"/></plan></person><person id="9"><plan><act end_time="08:00:00" type="home" x="-8244645" y="5083720"/><leg mode="ambulance"/><act dur="00:10:00" type="work" x="-8241576.483090267" y="5080940.22604331"/><leg mode="ambulance"/><act dur="00:15:00" type="shop" x="-8239250" y="5086920"/><leg mode="ambulance"/><act type="home" x="-8244645" y="5083720"/></plan></person><person id="10"><plan><act end_time="09:00:00" type="home" x="-8244645" y="5083720"/><leg mode="ambulance"/><act dur="00:10:00" type="work" x="-8247888.676704513" y="5080653.753374319"/><leg mode="ambulance"/><act dur="00:15:00" type="shop" x="-8239250" y="5086920"/><leg mode="ambulance"/><act type="home" x="-8244645" y="5083720"/></plan></person><person id="11"><plan><act end_time="09:00:00" type="home" x="-8244645" y="5083720"/><leg mode="ambulance"/><act dur="00:10:00" type="work" x="-8247613.973597085" y="5079646.078991008"/><leg mode="ambulance"/><act dur="00:15:00" type="shop" x="-8239250" y="5086920"/><leg mode="ambulance"/><act type="home" x="-8244645" y="5083720"/></plan></person><person id="12"><plan><act end_time="09:00:00" type="home" x="-8244645" y="5083720"/><leg mode="ambulance"/><act dur="00:10:00" type="work" x="-8249387.003654746" y="5079511.467971935"/><leg mode="ambulance"/><act dur="00:15:00" type="shop" x="-8239250" y="5086920"/><leg mode="ambulance"/><act type="home" x="-8244645" y="5083720"/></plan></person><person id="13"><plan><act end_time="09:00:00" type="home" x="-8244645" y="5083720"/><leg mode="ambulance"/><act dur="00:10:00" type="work" x="-8242639.784602426" y="5081754.562036991"/><leg mode="ambulance"/><act dur="00:15:00" type="shop" x="-8239250" y="5086920"/><leg mode="ambulance"/><act type="home" x="-8244645" y="5083720"/></plan></person><person id="14"><plan><act end_time="09:00:00" type="home" x="-8244645" y="5083720"/><leg mode="ambulance"/><act dur="00:10:00" type="work" x="-8240513.471008783" y="5081225.682213052"/><leg mode="ambulance"/><act dur="00:15:00" type="shop" x="-8239250" y="5086920"/><leg mode="ambulance"/><act type="home" x="-8244645" y="5083720"/></plan></person><person id="15"><plan><act end_time="10:00:00" type="home" x="-8244645" y="5083720"/><leg mode="ambulance"/><act dur="00:10:00" type="work" x="-8251714.47156825" y="5078622.619049406"/><leg mode="ambulance"/><act dur="00:15:00" type="shop" x="-8239250" y="5086920"/><leg mode="ambulance"/><act type="home" x="-8244645" y="5083720"/></plan></person><person id="16"><plan><act end_time="10:00:00" type="home" x="-8244645" y="5083720"/><leg mode="ambulance"/><act dur="00:10:00" type="work" x="-8250313.159554247" y="5084298.4963639425"/><leg mode="ambulance"/><act dur="00:15:00" type="shop" x="-8239250" y="5086920"/><leg mode="ambulance"/><act type="home" x="-8244645" y="5083720"/></plan></person><person id="17"><plan><act end_time="10:00:00" type="home" x="-8244645" y="5083720"/><leg mode="ambulance"/><act dur="00:10:00" type="work" x="-8243229.978278714" y="5081584.252462533"/><leg mode="ambulance"/><act dur="00:15:00" type="shop" x="-8239250" y="5086920"/><leg mode="ambulance"/><act type="home" x="-8244645" y="5083720"/></plan></person><person id="18"><plan><act end_time="10:00:00" type="home" x="-8244645" y="5083720"/><leg mode="ambulance"/><act dur="00:10:00" type="work" x="-8241416.9511280125" y="5080621.950011509"/><leg mode="ambulance"/><act dur="00:15:00" type="shop" x="-8239250" y="5086920"/><leg mode="ambulance"/><act type="home" x="-8244645" y="5083720"/></plan></person><person id="19"><plan><act end_time="10:00:00" type="home" x="-8244645" y="5083720"/><leg mode="ambulance"/><act dur="00:10:00" type="work" x="-8241576.483090267" y="5080940.22604331"/><leg mode="ambulance"/><act dur="00:15:00" type="shop" x="-8239250" y="5086920"/><leg mode="ambulance"/><act type="home" x="-8244645" y="5083720"/></plan></person><person id="20"><plan><act end_time="11:00:00" type="home" x="-8244645" y="5083720"/><leg mode="ambulance"/><act dur="00:10:00" type="work" x="-8245159.801839157" y="5084118.913845267"/><leg mode="ambulance"/><act dur="00:15:00" type="shop" x="-8239250" y="5086920"/><leg mode="ambulance"/><act type="home" x="-8244645" y="5083720"/></plan></person><person id="21"><plan><act end_time="11:00:00" type="home" x="-8244645" y="5083720"/><leg mode="ambulance"/><act dur="00:10:00" type="work" x="-8243170.711781817" y="5082570.110909239"/><leg mode="ambulance"/><act dur="00:15:00" type="shop" x="-8239250" y="5086920"/><leg mode="ambulance"/><act type="home" x="-8244645" y="5083720"/></plan></person><person id="22"><plan><act end_time="11:00:00" type="home" x="-8244645" y="5083720"/><leg mode="ambulance"/><act dur="00:10:00" type="work" x="-8246664.006458501" y="5082903.368683777"/><leg mode="ambulance"/><act dur="00:15:00" type="shop" x="-8239250" y="5086920"/><leg mode="ambulance"/><act type="home" x="-8244645" y="5083720"/></plan></person><person id="23"><plan><act end_time="11:00:00" type="home" x="-8244645" y="5083720"/><leg mode="ambulance"/><act dur="00:10:00" type="work" x="-8243634.112558091" y="5081172.827023889"/><leg mode="ambulance"/><act dur="00:15:00" type="shop" x="-8239250" y="5086920"/><leg mode="ambulance"/><act type="home" x="-8244645" y="5083720"/></plan></person><person id="24"><plan><act end_time="11:00:00" type="home" x="-8244645" y="5083720"/><leg mode="ambulance"/><act dur="00:10:00" type="work" x="-8250313.159554247" y="5084298.4963639425"/><leg mode="ambulance"/><act dur="00:15:00" type="shop" x="-8239250" y="5086920"/><leg mode="ambulance"/><act type="home" x="-8244645" y="5083720"/></plan></person><person id="25"><plan><act end_time="12:00:00" type="home" x="-8244645" y="5083720"/><leg mode="ambulance"/><act dur="00:10:00" type="work" x="-8247400.396022049" y="5080447.575569306"/><leg mode="ambulance"/><act dur="00:15:00" type="shop" x="-8239250" y="5086920"/><leg mode="ambulance"/><act type="home" x="-8244645" y="5083720"/></plan></person><person id="26"><plan><act end_time="12:00:00" type="home" x="-8244645" y="5083720"/><leg mode="ambulance"/><act dur="00:10:00" type="work" x="-8250547.3089711815" y="5084461.022545225"/><leg mode="ambulance"/><act dur="00:15:00" type="shop" x="-8239250" y="5086920"/><leg mode="ambulance"/><act type="home" x="-8244645" y="5083720"/></plan></person><person id="27"><plan><act end_time="12:00:00" type="home" x="-8244645" y="5083720"/><leg mode="ambulance"/><act dur="00:10:00" type="work" x="-8241555.710873285" y="5080788.09811687"/><leg mode="ambulance"/><act dur="00:15:00" type="shop" x="-8239250" y="5086920"/><leg mode="ambulance"/><act type="home" x="-8244645" y="5083720"/></plan></person><person id="28"><plan><act end_time="12:00:00" type="home" x="-8244645" y="5083720"/><leg mode="ambulance"/><act dur="00:10:00" type="work" x="-8243003.932920709" y="5080960.101932663"/><leg mode="ambulance"/><act dur="00:15:00" type="shop" x="-8239250" y="5086920"/><leg mode="ambulance"/><act type="home" x="-8244645" y="5083720"/></plan></person><person id="29"><plan><act end_time="12:00:00" type="home" x="-8244645" y="5083720"/><leg mode="ambulance"/><act dur="00:10:00" type="work" x="-8246144.845749288" y="5082486.998840981"/><leg mode="ambulance"/><act dur="00:15:00" type="shop" x="-8239250" y="5086920"/><leg mode="ambulance"/><act type="home" x="-8244645" y="5083720"/></plan></person><person id="30"><plan><act end_time="13:00:00" type="home" x="-8244645" y="5083720"/><leg mode="ambulance"/><act dur="00:10:00" type="work" x="-8240962.188744223" y="5083778.392384646"/><leg mode="ambulance"/><act dur="00:15:00" type="shop" x="-8239250" y="5086920"/><leg mode="ambulance"/><act type="home" x="-8244645" y="5083720"/></plan></person><person id="31"><plan><act end_time="13:00:00" type="home" x="-8244645" y="5083720"/><leg mode="ambulance"/><act dur="00:10:00" type="work" x="-8239950.572871638" y="5082186.470161741"/><leg mode="ambulance"/><act dur="00:15:00" type="shop" x="-8239250" y="5086920"/><leg mode="ambulance"/><act type="home" x="-8244645" y="5083720"/></plan></person><person id="32"><plan><act end_time="13:00:00" type="home" x="-8244645" y="5083720"/><leg mode="ambulance"/><act dur="00:10:00" type="work" x="-8247390.622170756" y="5079652.911333867"/><leg mode="ambulance"/><act dur="00:15:00" type="shop" x="-8239250" y="5086920"/><leg mode="ambulance"/><act type="home" x="-8244645" y="5083720"/></plan></person><person id="33"><plan><act end_time="13:00:00" type="home" x="-8244645" y="5083720"/><leg mode="ambulance"/><act dur="00:10:00" type="work" x="-8253897.5803660955" y="5082485.810257433"/><leg mode="ambulance"/><act dur="00:15:00" type="shop" x="-8239250" y="5086920"/><leg mode="ambulance"/><act type="home" x="-8244645" y="5083720"/></plan></person><person id="34"><plan><act end_time="13:00:00" type="home" x="-8244645" y="5083720"/><leg mode="ambulance"/><act dur="00:10:00" type="work" x="-8239733.421940947" y="5082828.009519015"/><leg mode="ambulance"/><act dur="00:15:00" type="shop" x="-8239250" y="5086920"/><leg mode="ambulance"/><act type="home" x="-8244645" y="5083720"/></plan></person><person id="35"><plan><act end_time="14:00:00" type="home" x="-8244645" y="5083720"/><leg mode="ambulance"/><act dur="00:10:00" type="work" x="-8254013.675463044" y="5079966.1497512795"/><leg mode="ambulance"/><act dur="00:15:00" type="shop" x="-8239250" y="5086920"/><leg mode="ambulance"/><act type="home" x="-8244645" y="5083720"/></plan></person><person id="36"><plan><act end_time="14:00:00" type="home" x="-8244645" y="5083720"/><leg mode="ambulance"/><act dur="00:10:00" type="work" x="-8239950.572871638" y="5082186.470161741"/><leg mode="ambulance"/><act dur="00:15:00" type="shop" x="-8239250" y="5086920"/><leg mode="ambulance"/><act type="home" x="-8244645" y="5083720"/></plan></person><person id="37"><plan><act end_time="14:00:00" type="home" x="-8244645" y="5083720"/><leg mode="ambulance"/><act dur="00:10:00" type="work" x="-8244055.557018285" y="5080647.974988125"/><leg mode="ambulance"/><act dur="00:15:00" type="shop" x="-8239250" y="5086920"/><leg mode="ambulance"/><act type="home" x="-8244645" y="5083720"/></plan></person><person id="38"><plan><act end_time="14:00:00" type="home" x="-8244645" y="5083720"/><leg mode="ambulance"/><act dur="00:10:00" type="work" x="-8245256.13772649" y="5079819.770532887"/><leg mode="ambulance"/><act dur="00:15:00" type="shop" x="-8239250" y="5086920"/><leg mode="ambulance"/><act type="home" x="-8244645" y="5083720"/></plan></person><person id="39"><plan><act end_time="14:00:00" type="home" x="-8244645" y="5083720"/><leg mode="ambulance"/><act dur="00:10:00" type="work" x="-8243771.458545831" y="5084024.643651055"/><leg mode="ambulance"/><act dur="00:15:00" type="shop" x="-8239250" y="5086920"/><leg mode="ambulance"/><act type="home" x="-8244645" y="5083720"/></plan></person><person id="40"><plan><act end_time="15:00:00" type="home" x="-8244645" y="5083720"/><leg mode="ambulance"/><act dur="00:10:00" type="work" x="-8250658.851100955" y="5078730.707681477"/><leg mode="ambulance"/><act dur="00:15:00" type="shop" x="-8239250" y="5086920"/><leg mode="ambulance"/><act type="home" x="-8244645" y="5083720"/></plan></person><person id="41"><plan><act end_time="15:00:00" type="home" x="-8244645" y="5083720"/><leg mode="ambulance"/><act dur="00:10:00" type="work" x="-8246658.284636675" y="5085308.039817113"/><leg mode="ambulance"/><act dur="00:15:00" type="shop" x="-8239250" y="5086920"/><leg mode="ambulance"/><act type="home" x="-8244645" y="5083720"/></plan></person><person id="42"><plan><act end_time="15:00:00" type="home" x="-8244645" y="5083720"/><leg mode="ambulance"/><act dur="00:10:00" type="work" x="-8245032.597057029" y="5079443.353700872"/><leg mode="ambulance"/><act dur="00:15:00" type="shop" x="-8239250" y="5086920"/><leg mode="ambulance"/><act type="home" x="-8244645" y="5083720"/></plan></person><person id="43"><plan><act end_time="15:00:00" type="home" x="-8244645" y="5083720"/><leg mode="ambulance"/><act dur="00:10:00" type="work" x="-8242688.776310324" y="5082092.54573013"/><leg mode="ambulance"/><act dur="00:15:00" type="shop" x="-8239250" y="5086920"/><leg mode="ambulance"/><act type="home" x="-8244645" y="5083720"/></plan></person><person id="44"><plan><act end_time="15:00:00" type="home" x="-8244645" y="5083720"/><leg mode="ambulance"/><act dur="00:10:00" type="work" x="-8240462.275174969" y="5083377.690307726"/><leg mode="ambulance"/><act dur="00:15:00" type="shop" x="-8239250" y="5086920"/><leg mode="ambulance"/><act type="home" x="-8244645" y="5083720"/></plan></person><person id="45"><plan><act end_time="16:00:00" type="home" x="-8244645" y="5083720"/><leg mode="ambulance"/><act dur="00:10:00" type="work" x="-8240003.249254682" y="5080593.013647452"/><leg mode="ambulance"/><act dur="00:15:00" type="shop" x="-8239250" y="5086920"/><leg mode="ambulance"/><act type="home" x="-8244645" y="5083720"/></plan></person><person id="46"><plan><act end_time="16:00:00" type="home" x="-8244645" y="5083720"/><leg mode="ambulance"/><act dur="00:10:00" type="work" x="-8250547.3089711815" y="5084461.022545225"/><leg mode="ambulance"/><act dur="00:15:00" type="shop" x="-8239250" y="5086920"/><leg mode="ambulance"/><act type="home" x="-8244645" y="5083720"/></plan></person><person id="47"><plan><act end_time="16:00:00" type="home" x="-8244645" y="5083720"/><leg mode="ambulance"/><act dur="00:10:00" type="work" x="-8259604.485381103" y="5080965.197178465"/><leg mode="ambulance"/><act dur="00:15:00" type="shop" x="-8239250" y="5086920"/><leg mode="ambulance"/><act type="home" x="-8244645" y="5083720"/></plan></person><person id="48"><plan><act end_time="16:00:00" type="home" x="-8244645" y="5083720"/><leg mode="ambulance"/><act dur="00:10:00" type="work" x="-8244008.123783258" y="5081506.214721698"/><leg mode="ambulance"/><act dur="00:15:00" type="shop" x="-8239250" y="5086920"/><leg mode="ambulance"/><act type="home" x="-8244645" y="5083720"/></plan></person><person id="49"><plan><act end_time="16:00:00" type="home" x="-8244645" y="5083720"/><leg mode="ambulance"/><act dur="00:10:00" type="work" x="-8243468.814246211" y="5079540.623878841"/><leg mode="ambulance"/><act dur="00:15:00" type="shop" x="-8239250" y="5086920"/><leg mode="ambulance"/><act type="home" x="-8244645" y="5083720"/></plan></person><person id="50"><plan><act end_time="17:00:00" type="home" x="-8244645" y="5083720"/><leg mode="ambulance"/><act dur="00:10:00" type="work" x="-8243906.923234177" y="5080393.996800137"/><leg mode="ambulance"/><act dur="00:15:00" type="shop" x="-8239250" y="5086920"/><leg mode="ambulance"/><act type="home" x="-8244645" y="5083720"/></plan></person><person id="51"><plan><act end_time="17:00:00" type="home" x="-8244645" y="5083720"/><leg mode="ambulance"/><act dur="00:10:00" type="work" x="-8249990.021336371" y="5082591.208473676"/><leg mode="ambulance"/><act dur="00:15:00" type="shop" x="-8239250" y="5086920"/><leg mode="ambulance"/><act type="home" x="-8244645" y="5083720"/></plan></person><person id="52"><plan><act end_time="17:00:00" type="home" x="-8244645" y="5083720"/><leg mode="ambulance"/><act dur="00:10:00" type="work" x="-8241702.808448418" y="5081274.289039868"/><leg mode="ambulance"/><act dur="00:15:00" type="shop" x="-8239250" y="5086920"/><leg mode="ambulance"/><act type="home" x="-8244645" y="5083720"/></plan></person><person id="53"><plan><act end_time="17:00:00" type="home" x="-8244645" y="5083720"/><leg mode="ambulance"/><act dur="00:10:00" type="work" x="-8247587.9916279325" y="5081730.13853203"/><leg mode="ambulance"/><act dur="00:15:00" type="shop" x="-8239250" y="5086920"/><leg mode="ambulance"/><act type="home" x="-8244645" y="5083720"/></plan></person><person id="54"><plan><act end_time="17:00:00" type="home" x="-8244645" y="5083720"/><leg mode="ambulance"/><act dur="00:10:00" type="work" x="-8243771.458545831" y="5084024.643651055"/><leg mode="ambulance"/><act dur="00:15:00" type="shop" x="-8239250" y="5086920"/><leg mode="ambulance"/><act type="home" x="-8244645" y="5083720"/></plan></person><person id="55"><plan><act end_time="18:00:00" type="home" x="-8244645" y="5083720"/><leg mode="ambulance"/><act dur="00:10:00" type="work" x="-8239950.572871638" y="5082186.470161741"/><leg mode="ambulance"/><act dur="00:15:00" type="shop" x="-8239250" y="5086920"/><leg mode="ambulance"/><act type="home" x="-8244645" y="5083720"/></plan></person><person id="56"><plan><act end_time="18:00:00" type="home" x="-8244645" y="5083720"/><leg mode="ambulance"/><act dur="00:10:00" type="work" x="-8256641.449966863" y="5081019.952672288"/><leg mode="ambulance"/><act dur="00:15:00" type="shop" x="-8239250" y="5086920"/><leg mode="ambulance"/><act type="home" x="-8244645" y="5083720"/></plan></person><person id="57"><plan><act end_time="18:00:00" type="home" x="-8244645" y="5083720"/><leg mode="ambulance"/><act dur="00:10:00" type="work" x="-8250313.159554247" y="5084298.4963639425"/><leg mode="ambulance"/><act dur="00:15:00" type="shop" x="-8239250" y="5086920"/><leg mode="ambulance"/><act type="home" x="-8244645" y="5083720"/></plan></person><person id="58"><plan><act end_time="18:00:00" type="home" x="-8244645" y="5083720"/><leg mode="ambulance"/><act dur="00:10:00" type="work" x="-8243335.754058867" y="5079441.972409034"/><leg mode="ambulance"/><act dur="00:15:00" type="shop" x="-8239250" y="5086920"/><leg mode="ambulance"/><act type="home" x="-8244645" y="5083720"/></plan></person><person id="59"><plan><act end_time="18:00:00" type="home" x="-8244645" y="5083720"/><leg mode="ambulance"/><act dur="00:10:00" type="work" x="-8249277.932817666" y="5086080.66849461"/><leg mode="ambulance"/><act dur="00:15:00" type="shop" x="-8239250" y="5086920"/><leg mode="ambulance"/><act type="home" x="-8244645" y="5083720"/></plan></person><person id="60"><plan><act end_time="19:00:00" type="home" x="-8244645" y="5083720"/><leg mode="ambulance"/><act dur="00:10:00" type="work" x="-8241662.53305665" y="5080658.44738725"/><leg mode="ambulance"/><act dur="00:15:00" type="shop" x="-8239250" y="5086920"/><leg mode="ambulance"/><act type="home" x="-8244645" y="5083720"/></plan></person><person id="61"><plan><act end_time="19:00:00" type="home" x="-8244645" y="5083720"/><leg mode="ambulance"/><act dur="00:10:00" type="work" x="-8243003.932920709" y="5080960.101932663"/><leg mode="ambulance"/><act dur="00:15:00" type="shop" x="-8239250" y="5086920"/><leg mode="ambulance"/><act type="home" x="-8244645" y="5083720"/></plan></person><person id="62"><plan><act end_time="19:00:00" type="home" x="-8244645" y="5083720"/><leg mode="ambulance"/><act dur="00:10:00" type="work" x="-8250332.150659377" y="5084205.056568422"/><leg mode="ambulance"/><act dur="00:15:00" type="shop" x="-8239250" y="5086920"/><leg mode="ambulance"/><act type="home" x="-8244645" y="5083720"/></plan></person><person id="63"><plan><act end_time="19:00:00" type="home" x="-8244645" y="5083720"/><leg mode="ambulance"/><act dur="00:10:00" type="work" x="-8241185.807337328" y="5081890.392915086"/><leg mode="ambulance"/><act dur="00:15:00" type="shop" x="-8239250" y="5086920"/><leg mode="ambulance"/><act type="home" x="-8244645" y="5083720"/></plan></person><person id="64"><plan><act end_time="19:00:00" type="home" x="-8244645" y="5083720"/><leg mode="ambulance"/><act dur="00:10:00" type="work" x="-8250658.851100955" y="5078730.707681477"/><leg mode="ambulance"/><act dur="00:15:00" type="shop" x="-8239250" y="5086920"/><leg mode="ambulance"/><act type="home" x="-8244645" y="5083720"/></plan></person><person id="65"><plan><act end_time="20:00:00" type="home" x="-8244645" y="5083720"/><leg mode="ambulance"/><act dur="00:10:00" type="work" x="-8242260.296458311" y="5080553.575365157"/><leg mode="ambulance"/><act dur="00:15:00" type="shop" x="-8239250" y="5086920"/><leg mode="ambulance"/><act type="home" x="-8244645" y="5083720"/></plan></person><person id="66"><plan><act end_time="20:00:00" type="home" x="-8244645" y="5083720"/><leg mode="ambulance"/><act dur="00:10:00" type="work" x="-8248497.594319154" y="5078964.146432343"/><leg mode="ambulance"/><act dur="00:15:00" type="shop" x="-8239250" y="5086920"/><leg mode="ambulance"/><act type="home" x="-8244645" y="5083720"/></plan></person><person id="67"><plan><act end_time="20:00:00" type="home" x="-8244645" y="5083720"/><leg mode="ambulance"/><act dur="00:10:00" type="work" x="-8247613.973597085" y="5079646.078991008"/><leg mode="ambulance"/><act dur="00:15:00" type="shop" x="-8239250" y="5086920"/><leg mode="ambulance"/><act type="home" x="-8244645" y="5083720"/></plan></person><person id="68"><plan><act end_time="20:00:00" type="home" x="-8244645" y="5083720"/><leg mode="ambulance"/><act dur="00:10:00" type="work" x="-8240462.275174969" y="5083377.690307726"/><leg mode="ambulance"/><act dur="00:15:00" type="shop" x="-8239250" y="5086920"/><leg mode="ambulance"/><act type="home" x="-8244645" y="5083720"/></plan></person><person id="69"><plan><act end_time="20:00:00" type="home" x="-8244645" y="5083720"/><leg mode="ambulance"/><act dur="00:10:00" type="work" x="-8244349.028591863" y="5079235.998763273"/><leg mode="ambulance"/><act dur="00:15:00" type="shop" x="-8239250" y="5086920"/><leg mode="ambulance"/><act type="home" x="-8244645" y="5083720"/></plan></person><person id="70"><plan><act end_time="21:00:00" type="home" x="-8244645" y="5083720"/><leg mode="ambulance"/><act dur="00:10:00" type="work" x="-8243962.738826859" y="5080813.113421807"/><leg mode="ambulance"/><act dur="00:15:00" type="shop" x="-8239250" y="5086920"/><leg mode="ambulance"/><act type="home" x="-8244645" y="5083720"/></plan></person><person id="71"><plan><act end_time="21:00:00" type="home" x="-8244645" y="5083720"/><leg mode="ambulance"/><act dur="00:10:00" type="work" x="-8239646.069536524" y="5083702.372568299"/><leg mode="ambulance"/><act dur="00:15:00" type="shop" x="-8239250" y="5086920"/><leg mode="ambulance"/><act type="home" x="-8244645" y="5083720"/></plan></person><person id="72"><plan><act end_time="21:00:00" type="home" x="-8244645" y="5083720"/><leg mode="ambulance"/><act dur="00:10:00" type="work" x="-8240593.910472831" y="5084922.922753904"/><leg mode="ambulance"/><act dur="00:15:00" type="shop" x="-8239250" y="5086920"/><leg mode="ambulance"/><act type="home" x="-8244645" y="5083720"/></plan></person><person id="73"><plan><act end_time="21:00:00" type="home" x="-8244645" y="5083720"/><leg mode="ambulance"/><act dur="00:10:00" type="work" x="-8239960.769736996" y="5081954.30525205"/><leg mode="ambulance"/><act dur="00:15:00" type="shop" x="-8239250" y="5086920"/><leg mode="ambulance"/><act type="home" x="-8244645" y="5083720"/></plan></person><person id="74"><plan><act end_time="21:00:00" type="home" x="-8244645" y="5083720"/><leg mode="ambulance"/><act dur="00:10:00" type="work" x="-8240045.161042965" y="5082639.18331865"/><leg mode="ambulance"/><act dur="00:15:00" type="shop" x="-8239250" y="5086920"/><leg mode="ambulance"/><act type="home" x="-8244645" y="5083720"/></plan></person><person id="75"><plan><act end_time="22:00:00" type="home" x="-8244645" y="5083720"/><leg mode="ambulance"/><act dur="00:10:00" type="work" x="-8245679.363298537" y="5080560.95796165"/><leg mode="ambulance"/><act dur="00:15:00" type="shop" x="-8239250" y="5086920"/><leg mode="ambulance"/><act type="home" x="-8244645" y="5083720"/></plan></person><person id="76"><plan><act end_time="22:00:00" type="home" x="-8244645" y="5083720"/><leg mode="ambulance"/><act dur="00:10:00" type="work" x="-8240031.4242178025" y="5082897.499800206"/><leg mode="ambulance"/><act dur="00:15:00" type="shop" x="-8239250" y="5086920"/><leg mode="ambulance"/><act type="home" x="-8244645" y="5083720"/></plan></person><person id="77"><plan><act end_time="22:00:00" type="home" x="-8244645" y="5083720"/><leg mode="ambulance"/><act dur="00:10:00" type="work" x="-8241576.483090267" y="5080940.22604331"/><leg mode="ambulance"/><act dur="00:15:00" type="shop" x="-8239250" y="5086920"/><leg mode="ambulance"/><act type="home" x="-8244645" y="5083720"/></plan></person><person id="78"><plan><act end_time="22:00:00" type="home" x="-8244645" y="5083720"/><leg mode="ambulance"/><act dur="00:10:00" type="work" x="-8243956.738706307" y="5083285.715582891"/><leg mode="ambulance"/><act dur="00:15:00" type="shop" x="-8239250" y="5086920"/><leg mode="ambulance"/><act type="home" x="-8244645" y="5083720"/></plan></person><person id="79"><plan><act end_time="22:00:00" type="home" x="-8244645" y="5083720"/><leg mode="ambulance"/><act dur="00:10:00" type="work" x="-8239315.528572511" y="5082607.165394656"/><leg mode="ambulance"/><act dur="00:15:00" type="shop" x="-8239250" y="5086920"/><leg mode="ambulance"/><act type="home" x="-8244645" y="5083720"/></plan></person><person id="80"><plan><act end_time="23:00:00" type="home" x="-8244645" y="5083720"/><leg mode="ambulance"/><act dur="00:10:00" type="work" x="-8240513.471008783" y="5081225.682213052"/><leg mode="ambulance"/><act dur="00:15:00" type="shop" x="-8239250" y="5086920"/><leg mode="ambulance"/><act type="home" x="-8244645" y="5083720"/></plan></person><person id="81"><plan><act end_time="23:00:00" type="home" x="-8244645" y="5083720"/><leg mode="ambulance"/><act dur="00:10:00" type="work" x="-8246144.845749288" y="5082486.998840981"/><leg mode="ambulance"/><act dur="00:15:00" type="shop" x="-8239250" y="5086920"/><leg mode="ambulance"/><act type="home" x="-8244645" y="5083720"/></plan></person><person id="82"><plan><act end_time="23:00:00" type="home" x="-8244645" y="5083720"/><leg mode="ambulance"/><act dur="00:10:00" type="work" x="-8251503.821695823" y="5081028.434899526"/><leg mode="ambulance"/><act dur="00:15:00" type="shop" x="-8239250" y="5086920"/><leg mode="ambulance"/><act type="home" x="-8244645" y="5083720"/></plan></person><person id="83"><plan><act end_time="23:00:00" type="home" x="-8244645" y="5083720"/><leg mode="ambulance"/><act dur="00:10:00" type="work" x="-8247597.720951427" y="5080815.861544181"/><leg mode="ambulance"/><act dur="00:15:00" type="shop" x="-8239250" y="5086920"/><leg mode="ambulance"/><act type="home" x="-8244645" y="5083720"/></plan></person><person id="84"><plan><act end_time="23:00:00" type="home" x="-8244645" y="5083720"/><leg mode="ambulance"/><act dur="00:10:00" type="work" x="-8240202.800573878" y="5082396.488623636"/><leg mode="ambulance"/><act dur="00:15:00" type="shop" x="-8239250" y="5086920"/><leg mode="ambulance"/><act type="home" x="-8244645" y="5083720"/></plan></person><person id="85"><plan><act end_time="00:00:00" type="home" x="-8244645" y="5083720"/><leg mode="ambulance"/><act dur="00:10:00" type="work" x="-8248296.250756157" y="5083514.821944794"/><leg mode="ambulance"/><act dur="00:15:00" type="shop" x="-8239250" y="5086920"/><leg mode="ambulance"/><act type="home" x="-8244645" y="5083720"/></plan></person><person id="86"><plan><act end_time="00:00:00" type="home" x="-8244645" y="5083720"/><leg mode="ambulance"/><act dur="00:10:00" type="work" x="-8243003.932920709" y="5080960.101932663"/><leg mode="ambulance"/><act du